ckt7_Mon_rfi_05_der000.csv
fault_bus,fault_type,fault_R_ohm,Va_mag_pu,Va_ang_deg,Vb_mag_pu,Vb_ang_deg,Vc_mag_pu,Vc_ang_deg,Ia_mag_A,Ia_ang_deg,Ib_mag_A,Ib_ang_deg,Ic_mag_A,Ic_ang_deg
318412,SLG,0,0.129802,-113.0921,1.0452,-150.4066,1.044436,89.3442,92.0946,-79.5997,234.5583,-138.8327,234.3125,71.2859
318412,SLG,10,1.044047,-30.5916,1.045514,-150.4774,1.043981,89.514,280.3883,-48.7386,246.7491,-167.256,276.0707,71.5315
318412,SLG,20,1.044053,-30.5689,1.045516,-150.4774,1.04398,89.514,280.3736,-48.7264,246.754,-167.2491,276.0793,71.5362
318412,SLG,30,1.044055,-30.5613,1.045517,-150.4773,1.043979,89.514,280.3688,-48.7223,246.7557,-167.2468,276.0822,71.5377
318412,SLG,40,1.044056,-30.5575,1.045517,-150.4773,1.043979,89.514,280.3663,-48.7202,246.7565,-167.2456,276.0836,71.5385
318412,LL,0,0.128795,-112.5877,0.130713,127.1023,1.043151,89.4225,109.5151,-115.9912,54.7766,-140.7759,216.3768,86.2554
318412,LL,10,1.04405,-30.5916,1.045502,-150.5229,1.043978,89.514,280.3718,-48.7477,246.7807,-167.2779,276.0617,71.5192
318412,LL,20,1.044055,-30.5689,1.04551,-150.5001,1.043978,89.514,280.3653,-48.7309,246.7698,-167.26,276.0748,71.53
318412,LL,30,1.044056,-30.5613,1.045513,-150.4925,1.043978,89.514,280.3632,-48.7253,246.7662,-167.2541,276.0792,71.5336
318412,LL,40,1.044057,-30.5575,1.045514,-150.4887,1.043978,89.514,280.3622,-48.7225,246.7644,-167.2511,276.0814,71.5354
318412,3LG,0,0.130046,-112.5215,0.130233,127.5468,0.130038,7.5423,34.0135,-119.2862,30.0495,123.7962,33.3672,0.9896
318412,3LG,10,1.044046,-30.5917,1.045505,-150.5229,1.043965,89.4684,280.3633,-48.76,246.7628,-167.2881,276.0922,71.4949
318412,3LG,20,1.044053,-30.5689,1.045512,-150.5001,1.043972,89.4912,280.3611,-48.7371,246.7608,-167.2652,276.0901,71.5179
318412,3LG,30,1.044055,-30.5613,1.045514,-150.4925,1.043974,89.4989,280.3604,-48.7294,246.7602,-167.2575,276.0893,71.5255
318412,3LG,40,1.044056,-30.5575,1.045515,-150.4887,1.043975,89.5027,280.3601,-48.7256,246.7599,-167.2537,276.089,71.5293
243937,SLG,0,0.011645,-51.7348,1.331249,174.715,1.731081,103.5238,181.4201,-72.2561,289.0223,-162.0425,288.4556,94.0047
243937,SLG,10,1.037583,-30.6956,1.047778,-150.7296,1.046874,89.7476,281.3307,-48.8945,246.7738,-167.3232,275.6266,71.6222
243937,SLG,20,1.040812,-30.6211,1.046652,-150.6039,1.045426,89.6315,280.8449,-48.8046,246.7661,-167.2828,275.857,71.5817
243937,SLG,30,1.041893,-30.5961,1.046275,-150.5618,1.044943,89.5925,280.6829,-48.7745,246.7637,-167.2693,275.9339,71.5681
243937,SLG,40,1.042433,-30.5836,1.046086,-150.5407,1.044702,89.5729,280.6019,-48.7594,246.7625,-167.2625,275.9724,71.5613
243937,LL,0,0.029868,-67.3606,0.02621,116.7764,1.485451,84.7667,126.3866,-121.7687,116.1742,-127.3407,341.605,81.0883
243937,LL,10,1.040477,-30.4622,1.041319,-150.8787,1.049088,89.4959,280.8636,-48.8108,247.5216,-167.5033,275.5635,71.5248
243937,LL,20,1.042257,-30.5037,1.043411,-150.6786,1.046548,89.505,280.6118,-48.7626,247.1413,-167.373,275.8232,71.533
243937,LL,30,1.042855,-30.5177,1.044112,-150.6117,1.045695,89.5081,280.5276,-48.7465,247.0141,-167.3295,275.9109,71.5356
243937,LL,40,1.043155,-30.5248,1.044463,-150.5781,1.045267,89.5096,280.4855,-48.7384,246.9504,-167.3077,275.955,71.5369
243937,3LG,0,0.032363,-95.4498,0.032394,144.619,0.032352,24.5982,8.4632,-102.2151,7.4752,140.8594,8.3021,18.0539
243937,3LG,10,1.042713,-30.714,1.044168,-150.6451,1.04263,89.346,280.7847,-48.9108,247.1361,-167.4428,276.5105,71.3437
243937,3LG,20,1.043387,-30.6301,1.044844,-150.5613,1.043305,89.4299,280.5715,-48.8125,246.9472,-167.3425,276.2988,71.4422
243937,3LG,30,1.043611,-30.6021,1.045069,-150.5333,1.04353,89.458,280.5006,-48.7797,246.8844,-167.3091,276.2285,71.4751
243937,3LG,40,1.043723,-30.5881,1.045181,-150.5193,1.043642,89.472,280.4651,-48.7633,246.853,-167.2924,276.1933,71.4915
157347,SLG,0,0.416789,-23.8397,1.097231,-168.4589,1.349487,96.5624,216.6469,-52.5993,269.1372,-158.8142,284.7792,87.2288
157347,SLG,10,1.035732,-31.0213,1.050408,-150.7007,1.04512,89.8588,281.8242,-49.0699,246.5373,-167.3349,275.7605,71.595
157347,SLG,20,1.039894,-30.7858,1.047991,-150.5889,1.044525,89.6878,281.0905,-48.8929,246.6439,-167.2884,275.9254,71.5678
157347,SLG,30,1.041282,-30.7064,1.047173,-150.5517,1.044337,89.6302,280.8464,-48.8335,246.6813,-167.273,275.9799,71.5587
157347,SLG,40,1.041976,-30.6665,1.046762,-150.5331,1.044245,89.6012,280.7244,-48.8037,246.7004,-167.2653,276.007,71.5542
157347,LL,0,0.510193,-33.0185,0.348474,-161.1871,1.261669,84.7387,163.0005,-69.865,156.7365,-149.6531,318.799,80.6521
157347,LL,10,1.036911,-30.6743,1.042059,-151.1747,1.049961,89.6322,281.4974,-49.0102,247.7327,-167.6706,275.3821,71.4902
157347,LL,20,1.040445,-30.6115,1.043821,-150.8283,1.046987,89.5754,280.9299,-48.8636,247.2433,-167.4568,275.7292,71.5162
157347,LL,30,1.041641,-30.59,1.044394,-150.7118,1.045988,89.5555,280.74,-48.8141,247.0812,-167.3853,275.8475,71.5246
157347,LL,40,1.042242,-30.5792,1.044678,-150.6534,1.045487,89.5453,280.6449,-48.7892,247.0004,-167.3496,275.9071,71.5287
157347,3LG,0,0.447801,-42.3627,0.44825,-162.3017,0.447696,77.6839,117.1064,-49.1305,103.4403,-166.0587,114.8794,71.1398
157347,3LG,10,1.041732,-30.8999,1.043188,-150.8315,1.041657,89.1598,281.0948,-49.1179,247.4107,-167.6528,276.8171,71.1364
157347,3LG,20,1.042904,-30.7236,1.044361,-150.655,1.042826,89.3364,280.7239,-48.9164,247.0822,-167.4479,276.4495,71.3382
157347,3LG,30,1.043291,-30.6645,1.044749,-150.5959,1.043212,89.3955,280.6016,-48.8491,246.9738,-167.3794,276.3283,71.4057
157347,3LG,40,1.043484,-30.635,1.044942,-150.5663,1.043404,89.4251,280.5407,-48.8154,246.9199,-167.3451,276.268,71.4394
298162,SLG,0,0.003326,-93.2696,1.230753,-171.1175,1.401655,102.1459,148.4809,-68.7428,276.4166,-152.2887,260.987,87.4612
298162,SLG,10,1.028156,-31.9818,1.057808,-150.6992,1.041485,90.2129,283.6184,-49.6335,245.9834,-167.4155,276.0153,71.5351
298162,SLG,20,1.036129,-31.2694,1.051734,-150.5855,1.042622,89.8649,281.9805,-49.1754,246.3547,-167.3277,276.0599,71.5357
298162,SLG,30,1.038778,-31.0295,1.049678,-150.5488,1.04305,89.7482,281.4381,-49.0219,246.4857,-167.2989,276.0711,71.5369
298162,SLG,40,1.0401,-30.9091,1.048644,-150.5307,1.043273,89.6898,281.1676,-48.9451,246.5526,-167.2846,276.076,71.5377
298162,LL,0,0.005369,-82.4849,0.00503,121.3073,1.35512,86.7811,107.0242,-122.1089,105.1057,-123.1785,304.0505,83.7685
298162,LL,10,1.025663,-31.2738,1.041758,-152.1275,1.053737,89.9759,283.5879,-49.6261,248.7498,-168.2575,274.8417,71.3553
298162,LL,20,1.034759,-30.9162,1.043771,-151.3073,1.04884,89.7533,281.9731,-49.1752,247.7388,-167.7504,275.4562,71.4507
298162,LL,30,1.037836,-30.7942,1.044383,-151.0317,1.047214,89.6754,281.4346,-49.0226,247.4086,-167.5811,275.6646,71.4813
298162,LL,40,1.039384,-30.7327,1.044679,-150.8935,1.046404,89.6358,281.165,-48.9458,247.2453,-167.4963,275.7697,71.4963
298162,3LG,0,0.005875,-100.9853,0.005875,139.0203,0.005875,19.0193,1.5361,-107.7747,1.3565,135.2628,1.5071,12.4962
298162,3LG,10,1.037748,-31.5023,1.039224,-151.4371,1.037726,88.5567,282.3579,-49.8059,248.5287,-168.3527,278.0638,70.448
298162,3LG,20,1.040931,-31.0256,1.042399,-150.9587,1.04088,89.034,281.3463,-49.2609,247.633,-167.7983,277.0637,70.9935
298162,3LG,30,1.04198,-30.8661,1.043445,-150.7985,1.041919,89.1937,281.0145,-49.0789,247.3392,-167.6131,276.7357,71.1757
298162,3LG,40,1.042502,-30.7862,1.043966,-150.7183,1.042436,89.2737,280.8496,-48.9878,247.1933,-167.5204,276.5728,71.2669
165448,SLG,0,0.003282,-90.4876,1.235498,-170.7516,1.394068,102.3584,23763.9783,-90.3517,277.1949,-152.0966,259.2979,87.5382
165448,SLG,10,1.027328,-32.1063,1.058778,-150.6912,1.040884,90.2556,1013.818,-36.9615,245.9061,-167.4225,276.0667,71.5256
165448,SLG,20,1.035723,-31.3324,1.052227,-150.5808,1.042304,89.8861,647.1218,-39.0228,246.3135,-167.3309,276.0869,71.5305
165448,SLG,30,1.038509,-31.0717,1.050008,-150.5455,1.042834,89.7623,524.2435,-40.6096,246.4577,-167.301,276.0893,71.5333
165448,SLG,40,1.0399,-30.9408,1.048892,-150.5282,1.043109,89.7004,462.8437,-41.7755,246.5314,-167.2862,276.0898,71.5349
165448,LL,0,0.005149,-83.6231,0.004562,123.2005,1.353463,86.9653,37154.2926,-83.7252,32802.9127,123.3682,303.6038,83.9597
165448,LL,10,1.024231,-31.3542,1.041869,-152.243,1.054118,90.0244,1010.7825,-36.4265,991.621,-156.2298,274.7822,71.3396
165448,LL,20,1.034032,-30.9577,1.043851,-151.3655,1.049019,89.7787,646.2068,-38.8185,617.4351,-157.8792,275.4257,71.4431
165448,LL,30,1.03735,-30.8222,1.044442,-151.0706,1.047331,89.6926,523.8014,-40.5002,492.9186,-159.2837,275.6442,71.4763
165448,LL,40,1.039018,-30.7538,1.044725,-150.9227,1.04649,89.6488,462.5827,-41.7072,430.8401,-160.3547,275.7544,71.4926
165448,3LG,0,0.005454,-101.0387,0.005454,138.9605,0.005454,18.9619,39269.7952,-101.039,39269.319,138.9604,39269.4431,18.9617
165448,3LG,10,1.037261,-31.5758,1.038742,-151.5112,1.037249,88.4832,1018.8596,-36.5743,988.3964,-155.7119,1014.8883,83.5925
165448,3LG,20,1.040691,-31.0626,1.042163,-150.9959,1.040646,88.997,647.9222,-38.8763,616.4202,-157.683,643.8641,81.3346
165448,3LG,30,1.041821,-30.8908,1.043288,-150.8234,1.041764,89.169,524.4128,-40.5358,492.406,-159.1817,520.3086,79.6965
165448,3LG,40,1.042383,-30.8048,1.043849,-150.737,1.04232,89.2551,462.8402,-41.7336,430.5243,-160.2936,458.7059,78.5102
165449,SLG,0,0.45108,-22.9499,1.114966,-163.6048,1.254482,96.8027,13726.8781,-95.7188,282.7508,-151.4386,252.0607,88.4067
165449,SLG,10,1.026594,-32.0639,1.05855,-150.7097,1.041298,90.2539,1008.9581,-38.318,245.1821,-167.4854,276.5326,71.4489
165449,SLG,20,1.035472,-31.3196,1.052167,-150.5867,1.042431,89.8862,646.2108,-39.7308,245.8753,-167.3568,276.3393,71.4847
165449,SLG,30,1.038369,-31.0649,1.049979,-150.5487,1.0429,89.7625,523.9646,-41.0905,246.1578,-167.3174,276.2616,71.5011
165449,SLG,40,1.039805,-30.9364,1.048875,-150.5302,1.043152,89.7005,462.7568,-42.1399,246.3035,-167.2982,276.2205,71.5101
165449,LL,0,0.462113,-27.6813,0.411033,-144.7237,1.217042,86.7592,21504.988,-85.5809,19843.5396,121.3527,303.7525,84.9057
165449,LL,10,1.024159,-31.3038,1.040797,-152.2331,1.054374,89.9997,1001.4245,-37.4838,993.141,-157.4375,274.038,71.2061
165449,LL,20,1.033959,-30.9419,1.043521,-151.3631,1.049116,89.7721,644.1415,-39.4312,617.9714,-158.4938,275.0487,71.3792
165449,LL,30,1.037294,-30.8139,1.04427,-151.0695,1.047387,89.6895,523.0379,-40.9383,493.1912,-159.6976,275.3928,71.4342
165449,LL,40,1.038974,-30.7484,1.044614,-150.922,1.046528,89.647,462.2478,-42.0498,431.0074,-160.6674,275.5658,71.4613
165449,3LG,0,0.430192,-28.2531,0.430177,-148.2566,0.430199,91.7462,23217.0149,-102.6668,23216.9186,137.3333,23216.7724,17.3338
165449,3LG,10,1.036852,-31.5595,1.038382,-151.4994,1.036914,88.4992,1015.3211,-37.551,985.2468,-156.6393,1011.0607,82.6456
165449,3LG,20,1.040537,-31.0567,1.042035,-150.9923,1.04053,89.0029,647.021,-39.4388,615.6625,-158.2075,642.7764,80.7941
165449,3LG,30,1.041729,-30.8873,1.043216,-150.8215,1.041698,89.1724,524.0205,-40.9416,492.091,-159.5573,519.7798,79.3079
165449,3LG,40,1.042319,-30.8023,1.043799,-150.7358,1.042276,89.2575,462.63,-42.0538,430.3634,-160.5889,458.3881,78.2041
287274,SLG,0,0.615574,-29.2365,1.101242,-159.8648,1.186654,95.4612,9874.3559,-91.5535,282.0281,-151.3265,250.8603,88.0346
287274,SLG,10,1.026264,-32.019,1.058238,-150.7211,1.041616,90.2445,998.8498,-39.2885,245.4931,-167.546,277.0467,71.4249
287274,SLG,20,1.035343,-31.3067,1.052086,-150.5904,1.042527,89.884,643.8269,-40.239,245.7508,-167.3744,276.6175,71.4658
287274,SLG,30,1.038294,-31.0585,1.04994,-150.5507,1.042949,89.7616,522.9684,-41.4326,246.0662,-167.3288,276.4512,71.4868
287274,SLG,40,1.039753,-30.9324,1.048851,-150.5316,1.043183,89.7,462.2308,-42.3967,246.2317,-167.3065,276.3643,71.4987
287274,LL,0,0.660932,-33.2518,0.572627,-153.878,1.170396,87.5786,14796.8757,-77.1128,14468.7141,131.0109,303.9872,85.0832
287274,LL,10,1.025548,-31.2852,1.041412,-152.2494,1.056093,89.9534,986.083,-35.0921,986.8304,-155.0684,259.5945,83.3475
287274,LL,20,1.033967,-30.9294,1.043295,-151.357,1.04915,89.7657,641.0692,-39.861,616.7942,-158.9465,275.0694,71.3457
287274,LL,30,1.037284,-30.8074,1.044152,-151.0667,1.047409,89.6864,521.7699,-41.2431,492.713,-159.9988,275.4064,71.4122
287274,LL,40,1.03896,-30.7443,1.044538,-150.9204,1.046544,89.6451,461.5961,-42.2858,430.7575,-160.8922,275.5758,71.4448
287274,3LG,0,0.619237,-35.9002,0.619201,-155.9054,0.619255,84.098,16389.5041,-93.2117,16390.0181,146.7894,16389.257,26.7887
287274,3LG,10,1.03663,-31.5397,1.038187,-151.4825,1.036737,88.5185,1006.9247,-38.2613,977.0798,-157.3164,1002.5033,81.9556
287274,3LG,20,1.040445,-31.0506,1.04196,-150.9877,1.040463,89.0088,644.9925,-39.8428,613.7208,-158.5862,640.6334,80.4047
287274,3LG,30,1.041673,-30.8842,1.043171,-150.8193,1.041659,89.1756,523.1632,-41.2285,491.2801,-159.8241,518.836,79.0324
287274,3LG,40,1.042279,-30.8003,1.043768,-150.7344,1.042248,89.2596,462.1758,-42.2772,429.9387,-160.7958,457.8648,77.99
283954,SLG,0,0.686103,-28.8103,1.086755,-158.4979,1.165499,94.4348,8286.5724,-92.6883,283.5635,-151.6677,251.6042,88.4392
283954,SLG,10,1.0259,-31.992,1.058063,-150.7319,1.041863,90.2414,995.2174,-40.0503,245.7916,-167.5854,277.2588,71.4165
283954,SLG,20,1.03521,-31.2991,1.052048,-150.5937,1.042601,89.8837,643.1862,-40.6312,245.5451,-167.3778,276.7434,71.4549
283954,SLG,30,1.038219,-31.0546,1.049923,-150.5525,1.042988,89.7616,522.7874,-41.6944,245.9217,-167.3299,276.5409,71.4776
283954,SLG,40,1.039703,-30.9299,1.048841,-150.5327,1.043208,89.7,462.1853,-42.5922,246.1204,-167.3071,276.4332,71.4912
283954,LL,0,0.723113,-32.2393,0.645499,-152.1966,1.148891,87.7017,12465.5991,-77.8939,12224.1567,130.0565,305.6269,85.0774
283954,LL,10,1.02554,-31.2565,1.040789,-152.2429,1.056245,89.9388,980.2102,-35.6617,987.315,-155.7729,258.8606,83.372
283954,LL,20,1.033941,-30.9205,1.043112,-151.3553,1.049202,89.7616,639.7466,-40.1844,617.0617,-159.2832,274.8563,71.3332
283954,LL,30,1.037259,-30.8028,1.044058,-151.0661,1.04744,89.6846,521.2872,-41.4714,492.8982,-160.2179,275.26,71.4038
283954,LL,40,1.038939,-30.7414,1.044479,-150.9201,1.046566,89.644,461.3916,-42.4628,430.8901,-161.0533,275.4695,71.439
283954,3LG,0,0.684538,-34.0908,0.684487,-154.0982,0.684573,85.9065,13831.642,-94.0602,13832.5182,145.9427,13831.239,25.9398
283954,3LG,10,1.036419,-31.5297,1.038004,-151.4752,1.036568,88.5284,1004.4046,-38.7948,974.7856,-157.82,999.7796,81.4366
283954,3LG,20,1.040364,-31.0473,1.041897,-150.9857,1.040404,89.0122,644.4403,-40.1393,613.2476,-158.8582,639.9445,80.1183
283954,3LG,30,1.041625,-30.8823,1.043136,-150.8184,1.041626,89.1775,522.9555,-41.4374,491.1131,-160.0128,518.5281,78.8312
283954,3LG,40,1.042245,-30.7991,1.043744,-150.7339,1.042226,89.2609,462.0818,-42.4393,429.8695,-160.9408,457.6919,77.8341
283956,SLG,0,0.734682,-32.2694,1.095931,-157.1241,1.137785,94.4761,7223.5712,-85.2738,275.6128,-152.0162,254.9875,86.8903
283956,SLG,10,1.026114,-31.9624,1.057825,-150.73,1.041948,90.229,982.7875,-40.251,245.7976,-167.5811,277.2737,71.4191
283956,SLG,20,1.035258,-31.2911,1.051984,-150.5935,1.042628,89.8805,639.982,-40.7385,245.5771,-167.3789,276.7553,71.4554
283956,SLG,30,1.03824,-31.051,1.049894,-150.5524,1.043001,89.7601,521.3556,-41.7614,245.9398,-167.331,276.5502,71.4776
283956,SLG,40,1.039714,-30.9279,1.048824,-150.5327,1.043215,89.6992,461.3784,-42.6382,246.1327,-167.3079,276.4407,71.491
283956,LL,0,0.783494,-34.3508,0.709868,-156.1961,1.138529,88.4495,10495.0852,-69.6238,10478.5848,139.4712,299.9054,84.5501
283956,LL,10,1.025972,-31.2451,1.040669,-152.2092,1.056035,89.9264,969.1567,-35.6258,976.3163,-156.0793,259.0363,83.3585
283956,LL,20,1.034055,-30.9168,1.043065,-151.3467,1.049153,89.758,636.7541,-40.2076,614.5068,-159.4487,274.9087,71.3306
283956,LL,30,1.03731,-30.8011,1.044035,-151.0622,1.047419,89.6828,519.9203,-41.4911,491.7896,-160.3177,275.2911,71.4019
283956,LL,40,1.038968,-30.7404,1.044465,-150.9179,1.046554,89.643,460.6121,-42.4785,430.2768,-161.1207,275.4913,71.4375
283956,3LG,0,0.753776,-36.84,0.753827,-156.852,0.753877,83.1591,11720.1168,-85.0892,11719.8832,154.9222,11719.5853,34.9128
283956,3LG,10,1.03646,-31.516,1.038042,-151.461,1.036603,88.5422,995.3031,-38.9579,965.5877,-157.9848,990.7018,81.2714
283956,3LG,20,1.040372,-31.0438,1.041903,-150.9821,1.04041,89.0158,642.1439,-40.2208,610.9221,-158.9416,637.6566,80.0359
283956,3LG,30,1.041628,-30.8807,1.043138,-150.8167,1.041629,89.1791,521.9388,-41.4875,490.082,-160.0648,517.5156,78.7805
283956,3LG,40,1.042246,-30.7981,1.043745,-150.7329,1.042227,89.2618,461.5127,-42.4737,429.2917,-160.9768,457.1252,77.7993
189963,SLG,0,0.80185,-31.336,1.081648,-155.845,1.119791,93.3828,5673.3645,-86.129,286.5106,-150.5807,239.2847,88.9121
189963,SLG,10,1.02644,-31.9326,1.059041,-150.7924,1.044024,90.207,970.2984,-38.8339,237.1477,-153.6147,263.688,82.9475
189963,SLG,20,1.035012,-31.2717,1.051861,-150.6003,1.042783,89.8772,637.4513,-41.6121,245.5709,-167.4031,277.6353,71.4519
189963,SLG,30,1.03809,-31.0406,1.049832,-150.5563,1.043084,89.7585,520.3526,-42.3797,245.8853,-167.3451,277.1532,71.4706
189963,SLG,40,1.039608,-30.9211,1.048785,-150.5353,1.04327,89.6982,460.8879,-43.1184,246.0829,-167.3181,276.8995,71.4839
189963,LL,0,0.85411,-33.0005,0.780864,-154.9949,1.118631,88.4388,7881.6519,-68.3197,8172.3407,141.9103,297.9822,86.2948
189963,LL,10,1.025903,-31.1823,1.039457,-152.1827,1.056254,89.8931,955.1329,-37.1349,971.0392,-157.5951,259.6485,83.3228
189963,LL,20,1.035213,-30.9189,1.044001,-151.378,1.050871,89.724,628.681,-36.2086,610.5275,-155.0276,261.2121,83.406
189963,LL,30,1.037251,-30.7906,1.04383,-151.0585,1.047463,89.6776,518.7616,-42.0901,491.2942,-160.8512,275.6233,71.3858
189963,LL,40,1.038918,-30.7335,1.044327,-150.9156,1.046586,89.6396,460.1286,-42.9512,430.0396,-161.5378,275.7395,71.4252
189963,3LG,0,0.825775,-35.4112,0.825757,-155.4229,0.825973,84.5866,8947.8098,-82.9381,8948.0465,157.0649,8944.2465,37.063
189963,3LG,10,1.037288,-31.5196,1.038966,-151.4701,1.037526,88.5406,983.9193,-37.1662,955.4331,-156.0193,978.669,83.0828
189963,3LG,20,1.04018,-31.0348,1.041757,-150.9755,1.040264,89.0257,640.0184,-40.9706,608.813,-159.6474,635.1115,79.2878
189963,3LG,30,1.041506,-30.8759,1.043048,-150.8134,1.041536,89.1847,521.1998,-42.042,489.326,-160.586,516.4837,78.2244
189963,3LG,40,1.042157,-30.795,1.04368,-150.7309,1.042161,89.2656,461.2264,-42.9164,428.978,-161.3933,456.6134,77.3538
181977,SLG,0,0.838129,-31.3921,1.077069,-155.059,1.107697,92.8869,4860.6302,-84.9853,282.0654,-150.7595,241.0405,88.1656
181977,SLG,10,1.026268,-31.8949,1.058784,-150.8003,1.044269,90.1988,960.3043,-39.5538,237.2894,-153.5968,263.4979,82.9071
181977,SLG,20,1.03494,-31.2611,1.051791,-150.6028,1.042856,89.8752,635.1588,-41.9759,245.5564,-167.4114,277.6618,71.4332
181977,SLG,30,1.038047,-31.0357,1.0498,-150.5576,1.043121,89.7577,519.4185,-42.6102,245.8536,-167.35,277.1767,71.456
181977,SLG,40,1.039578,-30.9181,1.048767,-150.5362,1.043292,89.6978,460.4076,-43.2825,246.0548,-167.3218,276.9194,71.472
181977,LL,0,0.887758,-32.7297,0.82083,-154.6402,1.108008,88.5871,6635.1358,-66.3887,6979.4152,144.2674,296.8056,85.6758
181977,LL,10,1.026188,-31.1513,1.038923,-152.1567,1.056229,89.8734,942.7267,-37.5867,964.9201,-158.2971,259.594,83.2817
181977,LL,20,1.035255,-30.9088,1.043822,-151.3728,1.050895,89.7186,625.4555,-36.4764,609.4032,-155.367,261.0142,83.3924
181977,LL,30,1.037267,-30.7857,1.043744,-151.0559,1.047474,89.6751,517.3774,-42.278,490.8797,-161.0634,275.5729,71.3661
181977,LL,40,1.038923,-30.7305,1.044274,-150.9142,1.046594,89.6382,459.383,-43.0914,429.8498,-161.6873,275.7004,71.4101
181977,3LG,0,0.862478,-34.9225,0.862544,-154.9344,0.862759,85.0786,7581.787,-80.6827,7580.5618,159.3211,7576.7007,39.3181
181977,3LG,10,1.03718,-31.5032,1.038859,-151.4546,1.037429,88.5566,975.6028,-37.645,947.1446,-156.4933,970.3567,82.6109
181977,3LG,20,1.040136,-31.03,1.041716,-150.9712,1.040227,89.0305,637.982,-41.2318,606.7846,-159.9046,633.0364,79.0314
181977,3LG,30,1.041479,-30.8736,1.043024,-150.8114,1.041515,89.187,520.3372,-42.2164,488.4596,-160.7569,515.5806,78.0542
181977,3LG,40,1.042138,-30.7935,1.043664,-150.7298,1.042146,89.267,460.7635,-43.0458,428.5159,-161.5194,456.1197,77.2272
181924,SLG,0,0.845488,-30.3643,1.069984,-155.0207,1.109711,92.5334,4667.4386,-88.8948,285.437,-150.6838,239.4949,88.8206
181924,SLG,10,1.025766,-31.8868,1.058777,-150.8128,1.044467,90.2052,964.5056,-40.1975,237.4997,-153.589,263.1156,82.8428
181924,SLG,20,1.034775,-31.2592,1.051795,-150.6068,1.042914,89.8776,636.9165,-42.2773,245.5806,-167.4141,277.5929,71.3929
181924,SLG,30,1.037955,-31.0349,1.049811,-150.5596,1.043148,89.7593,520.431,-42.8078,245.6888,-167.343,277.1357,71.4265
181924,SLG,40,1.039517,-30.9177,1.048775,-150.5375,1.04331,89.6989,461.0975,-43.4283,245.9265,-167.316,276.8902,71.4489
181924,LL,0,0.88261,-32.1089,0.821956,-152.8846,1.103892,88.4465,6678.0776,-71.2693,6841.3308,138.043,298.7248,85.9278
181924,LL,10,1.026056,-31.1362,1.038336,-152.1632,1.056399,89.8644,944.8176,-38.0192,972.2026,-158.9503,259.2161,83.2201
181924,LL,20,1.035175,-30.9033,1.043637,-151.3765,1.050974,89.7168,626.3402,-36.7418,611.748,-155.6918,260.5636,83.3795
181924,LL,30,1.03722,-30.7829,1.043653,-151.0576,1.047514,89.6743,517.9981,-42.4531,492.1095,-161.2563,275.3342,71.3402
181924,LL,40,1.038889,-30.7286,1.044215,-150.9154,1.046621,89.6378,459.8345,-43.2281,430.6205,-161.83,275.5204,71.3907
181924,3LG,0,0.855676,-33.6482,0.855722,-153.6579,0.855931,86.3542,7551.9741,-86.4449,7551.0906,153.5521,7547.0493,33.5471
181924,3LG,10,1.036931,-31.5054,1.038609,-151.457,1.037181,88.5543,980.9975,-38.1017,952.4532,-156.9685,975.7301,82.1508
181924,3LG,20,1.040054,-31.0303,1.041635,-150.9716,1.040146,89.0302,639.6842,-41.4615,608.4432,-160.1469,634.7115,78.799
181924,3LG,30,1.041433,-30.8736,1.04298,-150.8115,1.041471,89.1871,521.2145,-42.3772,489.3048,-160.9281,516.436,77.891
181924,3LG,40,1.042107,-30.7935,1.043634,-150.7297,1.042116,89.2671,461.322,-43.1707,429.0491,-161.6532,456.6604,77.1002
181993,SLG,0,0.860444,-30.1429,1.066539,-154.7225,1.105914,92.2587,4328.4571,-89.7418,284.4925,-150.9644,240.6655,88.735
181993,SLG,10,1.025529,-31.8684,1.05867,-150.8203,1.044638,90.2039,961.8391,-40.7125,237.6248,-153.5542,262.8679,82.821
181993,SLG,20,1.034683,-31.2549,1.051777,-150.6094,1.042963,89.8781,636.8479,-42.517,245.581,-167.3941,277.5083,71.3667
181993,SLG,30,1.037904,-31.0332,1.049808,-150.5609,1.043171,89.7598,520.5772,-42.9524,245.6257,-167.3269,277.0832,71.4071
181993,SLG,40,1.039484,-30.9168,1.048776,-150.5383,1.043323,89.6994,461.2712,-43.5273,245.8753,-167.3038,276.8522,71.4335
181993,LL,0,0.892767,-31.8298,0.837196,-152.3144,1.099065,88.4686,6249.7459,-72.3385,6367.7232,136.7371,298.985,85.7503
181993,LL,10,1.026167,-31.119,1.0379,-152.1536,1.056435,89.8523,940.4444,-38.3105,972.4269,-159.4862,259.1209,83.2145
181993,LL,20,1.03518,-30.8976,1.043499,-151.3754,1.051006,89.7137,625.3074,-36.9068,612.2318,-155.9389,260.3946,83.3805
181993,LL,30,1.037213,-30.7801,1.043586,-151.0576,1.047535,89.673,517.7409,-42.5666,492.5937,-161.3971,275.2155,71.3334
181993,LL,40,1.038881,-30.727,1.044175,-150.9156,1.046636,89.6371,459.7563,-43.3106,430.9729,-161.9258,275.4279,71.3847
181993,3LG,0,0.867129,-33.1195,0.867208,-153.1263,0.867391,86.8855,7052.3727,-87.6691,7050.7887,152.3209,7047.0018,32.3182
181993,3LG,10,1.03681,-31.5005,1.03848,-151.4515,1.037051,88.5591,979.9368,-38.4339,951.2343,-157.32,974.7152,81.813
181993,3LG,20,1.040013,-31.0292,1.041592,-150.9703,1.040102,89.0313,639.772,-41.6182,608.4792,-160.318,634.8139,78.6389
181993,3LG,30,1.041411,-30.8731,1.042957,-150.811,1.041447,89.1875,521.3603,-42.475,489.4202,-161.0371,516.5888,77.7906
181993,3LG,40,1.042093,-30.7932,1.043619,-150.7294,1.0421,89.2674,461.4612,-43.2399,429.1673,-161.7317,456.8038,77.0287
181994,SLG,0,0.875482,-30.0662,1.063911,-154.3993,1.101432,92.0109,3990.755,-90.0699,281.7094,-151.5711,244.0567,88.4484
181994,SLG,10,1.025381,-31.8454,1.05851,-150.826,1.044807,90.199,956.7851,-41.2139,237.7707,-153.5752,262.895,82.8519
181994,SLG,20,1.034626,-31.2489,1.051736,-150.6113,1.043013,89.8771,635.8755,-42.7489,245.638,-167.3994,277.5234,71.3726
181994,SLG,30,1.037875,-31.0305,1.04979,-150.5618,1.043194,89.7594,520.1857,-43.0884,245.6263,-167.3292,277.0962,71.4097
181994,SLG,40,1.039466,-30.9152,1.048766,-150.5389,1.043337,89.6992,461.0651,-43.6178,245.873,-167.3055,276.8631,71.4349
181994,LL,0,0.904853,-31.593,0.85406,-151.9973,1.094519,88.5154,5754.7994,-72.9154,5846.6364,136.2961,299.4107,85.2912
181994,LL,10,1.026352,-31.1017,1.037503,-152.1371,1.056412,89.8388,934.2622,-38.5837,969.9958,-160.0267,259.365,83.2075
181994,LL,20,1.03522,-30.892,1.043374,-151.3718,1.051014,89.7098,623.5594,-37.047,611.7979,-156.1827,260.4332,83.3798
181994,LL,30,1.037228,-30.7774,1.043526,-151.0561,1.047541,89.6713,517.0393,-42.6615,492.5678,-161.5391,275.2285,71.3321
181994,LL,40,1.038888,-30.7254,1.04414,-150.9147,1.04664,89.6361,459.3632,-43.3762,430.9715,-162.0212,275.4363,71.3835
181994,3LG,0,0.881242,-32.7411,0.881378,-152.744,0.881514,87.2673,6483.1559,-88.1914,6480.3768,151.7885,6477.2085,31.7909
181994,3LG,10,1.036713,-31.4928,1.038376,-151.4432,1.036941,88.5669,976.8278,-38.7701,947.9221,-157.6749,971.6213,81.4689
181994,3LG,20,1.039983,-31.0273,1.04156,-150.9681,1.040068,89.0333,639.1547,-41.7704,607.7936,-160.4843,634.202,78.4813
181994,3LG,30,1.041396,-30.8723,1.042941,-150.8099,1.04143,89.1884,521.1026,-42.5648,489.1228,-161.1377,516.3332,77.6964
181994,3LG,40,1.042084,-30.7927,1.04361,-150.7288,1.04209,89.2679,461.3216,-43.3005,429.0007,-161.801,456.6654,76.9645
181891,SLG,0,0.894525,-30.4471,1.063587,-153.9282,1.093568,91.8121,3568.8516,-87.9059,276.2583,-152.6175,249.9863,87.8058
181891,SLG,10,1.025483,-31.8046,1.058176,-150.8279,1.044997,90.1834,942.9549,-41.7386,238.091,-153.6576,263.2834,82.965
181891,SLG,20,1.034632,-31.2367,1.051634,-150.6126,1.043081,89.8726,632.2474,-43.0378,245.8531,-167.4253,277.6716,71.4244
181891,SLG,30,1.037877,-31.0245,1.049741,-150.5623,1.043227,89.7572,518.4563,-43.2682,245.6847,-167.3429,277.2014,71.4434
181891,SLG,40,1.039468,-30.9117,1.048737,-150.5391,1.043356,89.6978,460.0254,-43.7429,245.8586,-167.3131,276.9445,71.4597
181891,LL,0,0.925551,-31.7143,0.876813,-152.3772,1.089358,88.6604,5023.6238,-69.9559,5182.9507,139.9063,299.5833,84.4739
181891,LL,10,1.026806,-31.0783,1.037191,-152.0995,1.056243,89.8194,919.9507,-38.8221,959.019,-160.5872,260.0101,83.2347
181891,LL,20,1.035346,-30.8838,1.043252,-151.3615,1.05098,89.7033,619.2577,-37.1828,608.8691,-156.4593,260.657,83.402
181891,LL,30,1.037286,-30.7733,1.043465,-151.0513,1.047527,89.6681,515.082,-42.7723,491.3514,-161.7229,275.3405,71.3518
181891,LL,40,1.038923,-30.7229,1.044103,-150.9118,1.046631,89.6341,458.2002,-43.4544,430.2342,-162.1497,275.5205,71.3984
181891,3LG,0,0.904107,-32.9313,0.904379,-152.9301,0.904404,87.0822,5696.8342,-84.7782,5691.2351,155.1962,5690.1769,35.2052
181891,3LG,10,1.036732,-31.4745,1.038369,-151.4241,1.03694,88.584,965.5811,-39.0818,936.5788,-158.0029,960.7036,81.1642
181891,3LG,20,1.039984,-31.022,1.041548,-150.9627,1.040063,89.0379,636.1638,-41.9415,604.8076,-160.6688,631.3534,78.3193
181891,3LG,30,1.041397,-30.8697,1.042934,-150.8073,1.041427,89.1906,519.6713,-42.6701,487.7052,-161.2532,514.989,77.5993
181891,3LG,40,1.042085,-30.7911,1.043605,-150.7272,1.042089,89.2692,460.4603,-43.3733,428.154,-161.8819,455.8658,76.899
255335,SLG,0,0.899178,-30.3118,1.062179,-153.8445,1.09274,91.7111,3460.4164,-88.6082,276.3153,-152.3322,248.7874,87.7256
255335,SLG,10,1.025329,-31.798,1.058156,-150.8321,1.045075,90.1849,942.867,-41.9991,237.986,-153.6072,262.9655,82.9042
255335,SLG,20,1.035699,-31.2668,1.053233,-150.6504,1.044634,89.8585,627.4446,-38.3191,235.6538,-153.489,263.3445,83.0512
255335,SLG,30,1.037845,-31.0245,1.049748,-150.5631,1.043235,89.758,518.8319,-43.3244,245.655,-167.3332,277.1211,71.4145
255335,SLG,40,1.039447,-30.9118,1.048741,-150.5396,1.04336,89.6984,460.322,-43.7765,245.8792,-167.3081,276.8841,71.4375
255335,LL,0,0.927854,-31.472,0.882724,-152.0924,1.088034,88.66,4871.6804,-71.4578,4980.0095,138.6662,298.6494,84.6418
255335,LL,10,1.0268,-31.0719,1.03697,-152.0956,1.056268,89.815,919.5331,-39.0142,959.5274,-160.8991,259.7923,83.1993
255335,LL,20,1.03533,-30.8817,1.043184,-151.3617,1.050997,89.7024,619.3133,-37.2771,609.3995,-156.5937,260.538,83.3772
255335,LL,30,1.037273,-30.7723,1.043433,-151.0518,1.047538,89.6678,515.2498,-42.8275,491.8015,-161.7913,275.271,71.3304
255335,LL,40,1.038913,-30.7224,1.044084,-150.9123,1.046639,89.6341,458.3496,-43.4917,430.566,-162.1917,275.4652,71.3818
255335,3LG,0,0.908015,-32.6012,0.908313,-152.598,0.908326,87.4141,5495.6626,-86.2094,5489.541,153.7547,5488.4667,33.7683
255335,3LG,10,1.036618,-31.4729,1.038271,-151.422,1.036826,88.5871,966.1948,-39.3334,936.924,-158.2649,961.0084,80.8932
255335,3LG,20,1.039947,-31.022,1.041519,-150.9624,1.040024,89.0386,636.7041,-42.0461,605.2198,-160.7825,631.7612,78.1969
255335,3LG,30,1.041378,-30.8699,1.04292,-150.8072,1.041407,89.1909,520.0352,-42.7297,487.985,-161.3202,515.27,77.5245
255335,3LG,40,1.042073,-30.7914,1.043597,-150.7272,1.042075,89.2694,460.73,-43.4122,428.3615,-161.927,456.0762,76.8468
182030,SLG,0,0.904494,-30.4529,1.062377,-153.7095,1.090383,91.6664,3343.3775,-87.6853,274.7874,-152.4625,249.8423,87.4848
182030,SLG,10,1.025386,-31.7852,1.058056,-150.8321,1.045125,90.18,938.0792,-42.1406,237.9903,-153.6066,262.9646,82.9163
182030,SLG,20,1.035704,-31.263,1.053205,-150.6507,1.044652,89.8572,626.1588,-38.3924,235.659,-153.4892,263.3429,83.0554
182030,SLG,30,1.037846,-31.0228,1.049735,-150.5633,1.043244,89.7575,518.3102,-43.3746,245.6604,-167.3329,277.1178,71.4157
182030,SLG,40,1.039447,-30.9108,1.048734,-150.5397,1.043366,89.6981,460.0331,-43.8104,245.8831,-167.308,276.8822,71.4383
182030,LL,0,0.933765,-31.4655,0.890109,-152.2379,1.086827,88.7115,4643.6974,-70.6302,4761.3147,140.0343,298.1981,84.5041
182030,LL,10,1.02693,-31.0656,1.036909,-152.0821,1.056203,89.81,915.1781,-39.1042,954.9564,-161.0729,259.8455,83.2056
182030,LL,20,1.035366,-30.8795,1.043153,-151.3582,1.050984,89.7007,618.0445,-37.3245,608.2722,-156.6802,260.5597,83.3787
182030,LL,30,1.037288,-30.7712,1.043417,-151.0503,1.047533,89.667,514.6996,-42.8637,491.3752,-161.8481,275.276,71.3313
182030,LL,40,1.038921,-30.7217,1.044074,-150.9114,1.046637,89.6336,458.0371,-43.5166,430.3365,-162.2299,275.4679,71.3823
182030,3LG,0,0.915345,-32.6376,0.915696,-152.6333,0.915673,87.3795,5240.511,-85.0799,5233.2826,154.8823,5232.936,34.8983
182030,3LG,10,1.036617,-31.4661,1.038267,-151.415,1.036821,88.5939,962.0879,-39.4639,932.7526,-158.3984,956.9163,80.7618
182030,3LG,20,1.039943,-31.0202,1.041515,-150.9605,1.040019,89.0404,635.7075,-42.1148,604.2047,-160.8543,630.7706,78.1278
182030,3LG,30,1.041376,-30.869,1.042917,-150.8064,1.041404,89.1917,519.5974,-42.7706,487.5381,-161.3635,514.8351,77.4833
182030,3LG,40,1.042071,-30.7909,1.043595,-150.7267,1.042073,89.2698,460.4869,-43.4395,428.1131,-161.9561,455.8348,76.8194
182153,SLG,0,0.933293,-31.0165,1.062414,-153.0023,1.078514,91.3759,2719.4884,-82.6399,267.426,-153.1124,254.7003,86.4289
182153,SLG,10,1.025821,-31.7016,1.057385,-150.8308,1.045427,90.147,906.1851,-43.0349,238.2218,-153.6476,263.1736,82.9775
182153,SLG,20,1.034626,-31.2072,1.051417,-150.6159,1.043236,89.8641,623.276,-43.7754,245.9048,-167.4149,277.6209,71.3981
182153,SLG,30,1.037856,-31.0109,1.049641,-150.5644,1.043305,89.7536,514.5928,-43.7187,245.7872,-167.342,277.1802,71.4211
182153,SLG,40,1.03945,-30.9039,1.04868,-150.5404,1.043402,89.6959,457.9337,-44.0473,245.9396,-167.3139,276.934,71.4409
182153,LL,0,0.964339,-31.6047,0.925279,-152.7479,1.079293,88.9474,3569.3495,-64.1005,3790.2292,148.1705,295.2705,83.8269
182153,LL,10,1.027968,-31.0189,1.036521,-151.9977,1.055769,89.7739,881.6704,-39.4929,927.2657,-162.022,260.5368,83.1845
182153,LL,20,1.03565,-30.8619,1.042943,-151.3356,1.050895,89.688,607.9841,-37.5898,601.2835,-157.1865,260.8363,83.3635
182153,LL,30,1.037411,-30.7622,1.043303,-151.0403,1.047501,89.6609,510.206,-43.1001,488.6643,-162.1938,275.4158,71.3259
182153,LL,40,1.03899,-30.7163,1.044004,-150.9058,1.04662,89.63,455.4513,-43.6869,428.8454,-162.4677,275.5682,71.3774
182153,3LG,0,0.949934,-32.8616,0.950628,-152.8485,0.95032,87.1672,4089.4064,-77.4162,4075.1281,162.5512,4080.52,42.5725
182153,3LG,10,1.03675,-31.4233,1.03839,-151.3707,1.036932,88.6371,933.8154,-40.0178,904.1069,-158.9631,928.6434,80.1951
182153,3LG,20,1.039953,-31.0082,1.041521,-150.948,1.040021,89.0527,628.3914,-42.4701,596.7478,-161.2263,623.4429,77.7623
182153,3LG,30,1.041375,-30.8634,1.042916,-150.8005,1.041399,89.1975,516.3015,-42.9965,484.1582,-161.6032,511.5244,77.2489
182153,3LG,40,1.042069,-30.7877,1.043593,-150.7233,1.042068,89.2732,458.6263,-43.5975,426.194,-162.1258,453.9602,76.6539
182158,SLG,0,0.942273,-31.0499,1.061543,-152.7965,1.075467,91.2461,2522.1647,-81.6835,265.3293,-153.3755,256.5549,86.1993
182158,SLG,10,1.025919,-31.669,1.057132,-150.8319,1.045569,90.1354,894.8523,-43.4797,238.2921,-153.6584,263.2041,83.0029
182158,SLG,20,1.03462,-31.1973,1.051343,-150.6171,1.043291,89.8611,620.4094,-44.0326,245.9525,-167.4174,277.6259,71.4023
182158,SLG,30,1.037848,-31.0062,1.049606,-150.5651,1.043333,89.7522,513.3196,-43.8776,245.8221,-167.3447,277.1876,71.4226
182158,SLG,40,1.039443,-30.9012,1.04866,-150.5409,1.043418,89.6951,457.2233,-44.1557,245.963,-167.3161,276.9412,71.4414
182158,LL,0,0.971743,-31.5456,0.935628,-152.6619,1.076709,89.0018,3279.5967,-63.1635,3490.9007,149.4718,293.9461,83.6034
182158,LL,10,1.028344,-31.0011,1.036287,-151.966,1.055619,89.7591,870.1715,-39.686,918.0891,-162.5228,260.7631,83.1781
182158,LL,20,1.035754,-30.8548,1.042832,-151.3272,1.050868,89.6827,604.3982,-37.7142,599.0458,-157.4439,260.928,83.3576
182158,LL,30,1.037456,-30.7586,1.043244,-151.0367,1.047493,89.6583,508.6072,-43.2036,487.883,-162.3587,275.4563,71.323
182158,LL,40,1.039015,-30.7141,1.043968,-150.9038,1.046616,89.6284,454.5293,-43.7609,428.4344,-162.5794,275.5963,71.3748
182158,3LG,0,0.958691,-32.7375,0.959508,-152.719,0.959072,87.2962,3760.3161,-76.2575,3743.3702,163.7042,3751.1817,43.7316
182158,3LG,10,1.036752,-31.4081,1.038384,-151.3551,1.036923,88.6521,924.6896,-40.3197,894.8572,-159.2745,919.5873,79.8909
182158,3LG,20,1.039943,-31.0039,1.041508,-150.9436,1.040009,89.0569,626.0634,-42.6398,594.3835,-161.4048,621.1397,77.5919
182158,3LG,30,1.041368,-30.8614,1.042908,-150.7985,1.041391,89.1995,515.2576,-43.1012,483.0953,-161.7145,510.4922,77.1437
182158,3LG,40,1.042064,-30.7865,1.043587,-150.7221,1.042063,89.2744,458.0395,-43.6695,425.5952,-162.2029,453.3801,76.5816
182162,SLG,0,0.949759,-31.056,1.06069,-152.6271,1.073041,91.1322,2356.6913,-80.953,263.4508,-153.587,257.7168,86.0374
182162,SLG,10,1.026005,-31.6384,1.056896,-150.8331,1.045704,90.1246,884.3521,-43.9138,238.3313,-153.6611,263.2089,83.0312
182162,SLG,20,1.035748,-31.2182,1.052857,-150.6545,1.044881,89.8425,611.1283,-39.3447,235.869,-153.5259,263.4661,83.0915
182162,SLG,30,1.037838,-31.0018,1.049573,-150.5658,1.04336,89.751,512.1488,-44.032,245.8437,-167.3452,277.1843,71.4252
182162,SLG,40,1.039435,-30.8986,1.048641,-150.5413,1.043435,89.6944,456.576,-44.2606,245.9783,-167.3168,276.9403,71.4428
182162,LL,0,0.977618,-31.4888,0.944058,-152.557,1.074498,89.0439,3046.1492,-62.5034,3244.4883,150.3976,292.7404,83.3872
182162,LL,10,1.028697,-30.9849,1.036062,-151.9361,1.055478,89.7453,859.6396,-39.8649,909.674,-163.0134,260.9304,83.1826
182162,LL,20,1.035854,-30.8482,1.042723,-151.3194,1.050844,89.6777,601.047,-37.8297,597.0205,-157.6969,260.9941,83.3575
182162,LL,30,1.037498,-30.7551,1.043186,-151.0334,1.047487,89.6559,507.1086,-43.3,487.2042,-162.5188,275.4789,71.3229
182162,LL,40,1.039039,-30.7119,1.043932,-150.9019,1.046614,89.627,453.6656,-43.8296,428.0873,-162.687,275.6109,71.3744
182162,3LG,0,0.965607,-32.6134,0.966528,-152.59,0.965979,87.4246,3493.3545,-75.4443,3474.1521,164.5107,3484.0792,44.5441
182162,3LG,10,1.036749,-31.3942,1.038374,-151.3407,1.036912,88.6659,916.3997,-40.6099,886.452,-159.5744,911.3647,79.5984
182162,3LG,20,1.039933,-30.9999,1.041495,-150.9395,1.039996,89.0608,623.9503,-42.8006,592.2381,-161.5742,619.0517,77.4305
182162,3LG,30,1.041362,-30.8596,1.0429,-150.7966,1.041384,89.2013,514.3135,-43.1993,482.1349,-161.819,509.5603,77.0453
182162,3LG,40,1.04206,-30.7854,1.043582,-150.721,1.042058,89.2754,457.5109,-43.7361,425.0568,-162.2743,452.8586,76.5148
